#------------------------------------------------------------------------------
#                  Harmonized Emissions Component (HEMCO)                     !
#------------------------------------------------------------------------------
#BOP
#
# !MODULE: HEMCO_Config.rc
#
# !DESCRIPTION: Contains configuration information for HEMCO. Define the
#  emissions inventories and corresponding file paths here. Entire
#  configuration files can be inserted into this configuration file with
#  an '>>>include' statement, e.g. '>>>include HEMCO\_Config\_test.rc'
#  The settings of include-files will be ignored.
#\\
#\\
# !REMARKS:
#  This file has been customized for the trace metals simulation.
#  See The HEMCO User's Guide for file details:
#    http://wiki.geos-chem.org/The_HEMCO_User%27s_Guide
#
# !REVISION HISTORY:
#  See https://github.com/geoschem/geos-chem for complete history
#EOP
#------------------------------------------------------------------------------
#BOC
###############################################################################
### BEGIN SECTION SETTINGS
###############################################################################

ROOT:                        /summer/geoschem/COMMON/ExtData/HEMCO
METDIR:                      /summer/geoschem/COMMON/ExtData/GEOS_2x2.5/MERRA2
GCAPSCENARIO:                not_used
GCAPVERTRES:                 47
Logfile:                     HEMCO.log
DiagnFile:                   HEMCO_Diagn.rc
DiagnPrefix:                 ./OutputDir/HEMCO_diagnostics
DiagnFreq:                   Monthly
Wildcard:                    *
Separator:                   /
Unit tolerance:              1
Negative values:             0
Only unitless scale factors: false
Verbose:                     0
Warnings:                    1

### END SECTION SETTINGS ###

###############################################################################
### BEGIN SECTION EXTENSION SWITCHES
###############################################################################
# ExtNr ExtName                on/off  Species  Years avail.
0       Base                   : on    *
# ----- MAIN SWITCHES ---------------------------------------------------------
    --> EMISSIONS              :       true
    --> METEOROLOGY            :       true     # 1980-2021
# ----- RESTART FIELDS --------------------------------------------------------
    --> GC_RESTART             :       false
# ----- NON-EMISSIONS DATA ----------------------------------------------------
    --> OLSON_LANDMAP          :       true     # 1985
    --> YUAN_MODIS_LAI         :       true     # 2000-2020
#==============================================================================
# Plastic emissions using HEMCO module of Fu et al. (2023)
# https://doi.org/10.1016/j.oneear.2023.05.012
#
# - K_MP_{SOURCE}
#     Emission coefficients for plastics from {SOURCE}. The values are chosen
#     to give emissions of ~ 1 Gg/year from each source.
# - PST{SIZE}_{SOURCE}_fact
#     Size coefficients to distribute emissions across tracer sizes (i.e. set
#     the size distribution of emissions). The values correspond to a
#     powerlaw size distribution with exponent alpha = -2.8 (slope = -1.8).
#==============================================================================
    --> PST_OCEAN              :       true
    --> PST_RESIDENTIAL        :       false
    --> PST_ROAD               :       false
118     Plastics               : off   PST1/PST2/PST3/PST4/PST5/PST6
    --> K_MP_MMPW              :       1.22144e-21
    --> K_MP_AGRI              :       1.39059e-16
    --> PST1_MMPW_fact         :       0.00526
    --> PST2_MMPW_fact         :       0.02395
    --> PST3_MMPW_fact         :       0.02996
    --> PST4_MMPW_fact         :       0.13034
    --> PST5_MMPW_fact         :       0.25247
    --> PST6_MMPW_fact         :       0.55802
    --> PST1_AGRI_fact         :       0.00526
    --> PST2_AGRI_fact         :       0.02395
    --> PST3_AGRI_fact         :       0.02996
    --> PST4_AGRI_fact         :       0.13034
    --> PST5_AGRI_fact         :       0.25247
    --> PST6_AGRI_fact         :       0.55802
#------------------------------------------------------------------------------
### END SECTION EXTENSION SWITCHES ###

###############################################################################
### BEGIN SECTION BASE EMISSIONS
###############################################################################

# ExtNr Name sourceFile sourceVar sourceTime C/R/E SrcDim SrcUnit Species ScalIDs Cat Hier

(((EMISSIONS

#==============================================================================
# --- Plastics: ocean, residential, and road-related sources ---
#==============================================================================
(((PST_OCEAN
0 SEASALT_PST1 $ROOT/OFFLINE_SEASALT/v2019-01/0.5x0.625/$YYYY/$MM/seasalt_05.$YYYY$MM$DD.nc SALA_TOTAL 1980-2022/1-12/1-31/* EFY xy kg/m2/s PST1 617/618/619/621 1 1
0 SEASALT_PST2 $ROOT/OFFLINE_SEASALT/v2019-01/0.5x0.625/$YYYY/$MM/seasalt_05.$YYYY$MM$DD.nc SALC_TOTAL 1980-2022/1-12/1-31/* EFY xy kg/m2/s PST2     618/619/622 1 1
0 SEASALT_PST3 $ROOT/OFFLINE_SEASALT/v2019-01/0.5x0.625/$YYYY/$MM/seasalt_05.$YYYY$MM$DD.nc SALC_TOTAL 1980-2022/1-12/1-31/* EFY xy kg/m2/s PST3     618/619/623 1 1
0 SEASALT_PST4 $ROOT/OFFLINE_SEASALT/v2019-01/0.5x0.625/$YYYY/$MM/seasalt_05.$YYYY$MM$DD.nc SALC_TOTAL 1980-2022/1-12/1-31/* EFY xy kg/m2/s PST4     618/619/624 1 1
0 SEASALT_PST5 $ROOT/OFFLINE_SEASALT/v2019-01/0.5x0.625/$YYYY/$MM/seasalt_05.$YYYY$MM$DD.nc SALC_TOTAL 1980-2022/1-12/1-31/* EFY xy kg/m2/s PST5     618/619/625 1 1
0 SEASALT_PST6 $ROOT/OFFLINE_SEASALT/v2019-01/0.5x0.625/$YYYY/$MM/seasalt_05.$YYYY$MM$DD.nc SALC_TOTAL 1980-2022/1-12/1-31/* EFY xy kg/m2/s PST6     618/619/626 1 1
)))PST_OCEAN

(((PST_RESIDENTIAL
0 RESI_PST1 $ROOT/Plastics/Resi/glds00ag15.nc population 2000/1/1/0 C xy kg/m2/s PST1 910/921 4 1
0 RESI_PST2 $ROOT/Plastics/Resi/glds00ag15.nc population 2000/1/1/0 C xy kg/m2/s PST2 910/922 4 1
0 RESI_PST3 $ROOT/Plastics/Resi/glds00ag15.nc population 2000/1/1/0 C xy kg/m2/s PST3 910/923 4 1
0 RESI_PST4 $ROOT/Plastics/Resi/glds00ag15.nc population 2000/1/1/0 C xy kg/m2/s PST4 910/924 4 1
0 RESI_PST5 $ROOT/Plastics/Resi/glds00ag15.nc population 2000/1/1/0 C xy kg/m2/s PST5 910/925 4 1
0 RESI_PST6 $ROOT/Plastics/Resi/glds00ag15.nc population 2000/1/1/0 C xy kg/m2/s PST6 910/926 4 1
)))PST_RESIDENTIAL

(((PST_ROAD
0 ROAD_PST1 $ROOT/CEDS/v2021-06/$YYYY/CO-em-anthro_CMIP_CEDS_$YYYY.nc CO_tra 1750-2019/1-12/1/0 C xy kg/m2/s PST1 1110/1121 5 1
0 ROAD_PST2 $ROOT/CEDS/v2021-06/$YYYY/CO-em-anthro_CMIP_CEDS_$YYYY.nc CO_tra 1750-2019/1-12/1/0 C xy kg/m2/s PST2 1110/1122 5 1
0 ROAD_PST3 $ROOT/CEDS/v2021-06/$YYYY/CO-em-anthro_CMIP_CEDS_$YYYY.nc CO_tra 1750-2019/1-12/1/0 C xy kg/m2/s PST3 1110/1123 5 1
0 ROAD_PST4 $ROOT/CEDS/v2021-06/$YYYY/CO-em-anthro_CMIP_CEDS_$YYYY.nc CO_tra 1750-2019/1-12/1/0 C xy kg/m2/s PST4 1110/1124 5 1
0 ROAD_PST5 $ROOT/CEDS/v2021-06/$YYYY/CO-em-anthro_CMIP_CEDS_$YYYY.nc CO_tra 1750-2019/1-12/1/0 C xy kg/m2/s PST5 1110/1125 5 1
0 ROAD_PST6 $ROOT/CEDS/v2021-06/$YYYY/CO-em-anthro_CMIP_CEDS_$YYYY.nc CO_tra 1750-2019/1-12/1/0 C xy kg/m2/s PST6 1110/1126 5 1
)))PST_ROAD

)))EMISSIONS

###############################################################################
### EXTENSION DATA (subsection of BASE EMISSIONS SECTION)
###
### These fields are needed by the extensions listed above. The assigned ExtNr
### must match the ExtNr entry in section 'Extension switches'. These fields
### are only read if the extension is enabled.  The fields are imported by the
### extensions by field name.  The name given here must match the name used
### in the extension's source code.
###############################################################################

###############################################################################
### NON-EMISSIONS DATA (subsection of BASE EMISSIONS SECTION)
###
### Non-emissions data. The following fields are read through HEMCO but do
### not contain emissions data. The extension number is set to wildcard
### character denoting that these fields will not be considered for emission
### calculation. A given entry is only read if the assigned species name is
### an HEMCO species.
###############################################################################

#==============================================================================
# --- Plastics: mismanaged waste and agricultural sources ---
#==============================================================================
(((PLASTICS
* MMPW $ROOT/Plastics/MMPW/MMPW_Borrelle_unitless.nc              MMPW        2020/1/1/0 C xy unitless * - 1 1
* AGRI $ROOT/Plastics/Agri/Fraction_agricultural_land_unitless.nc fraction_ag 2020/1/1/0 C xy unitless * - 1 1
)))PLASTICS

#==============================================================================
# --- Time zones (offset to UTC) ---
#==============================================================================
* TIMEZONES $ROOT/TIMEZONES/v2015-02/timezones_voronoi_1x1.nc UTC_OFFSET 2000/1/1/0 C xy count * - 1 1

#==============================================================================
# --- Meteorology fields ---
#==============================================================================
(((METEOROLOGY

>>>include HEMCO_Config.rc.gmao_metfields

)))METEOROLOGY

#==============================================================================
# --- GEOS-Chem restart file ---
#==============================================================================
(((GC_RESTART
* SPC_           ./Restarts/GEOSChem.Restart.$YYYY$MM$DD_$HH$MNz.nc4 SpeciesRst_?ALL?    $YYYY/$MM/$DD/$HH EFYO xyz 1 * - 1 1
* DELPDRY        ./Restarts/GEOSChem.Restart.$YYYY$MM$DD_$HH$MNz.nc4 Met_DELPDRY         $YYYY/$MM/$DD/$HH EY   xyz 1 * - 1 1
)))GC_RESTART

#==============================================================================
# --- Olson land map masks ---
#==============================================================================
(((OLSON_LANDMAP
* LANDTYPE00 $ROOT/OLSON_MAP/v2019-02/Olson_2001_Land_Type_Masks.025x025.generic.nc LANDTYPE00 1985/1/1/0 C xy 1 * - 1 1
* LANDTYPE01 $ROOT/OLSON_MAP/v2019-02/Olson_2001_Land_Type_Masks.025x025.generic.nc LANDTYPE01 1985/1/1/0 C xy 1 * - 1 1
* LANDTYPE02 $ROOT/OLSON_MAP/v2019-02/Olson_2001_Land_Type_Masks.025x025.generic.nc LANDTYPE02 1985/1/1/0 C xy 1 * - 1 1
* LANDTYPE03 $ROOT/OLSON_MAP/v2019-02/Olson_2001_Land_Type_Masks.025x025.generic.nc LANDTYPE03 1985/1/1/0 C xy 1 * - 1 1
* LANDTYPE04 $ROOT/OLSON_MAP/v2019-02/Olson_2001_Land_Type_Masks.025x025.generic.nc LANDTYPE04 1985/1/1/0 C xy 1 * - 1 1
* LANDTYPE05 $ROOT/OLSON_MAP/v2019-02/Olson_2001_Land_Type_Masks.025x025.generic.nc LANDTYPE05 1985/1/1/0 C xy 1 * - 1 1
* LANDTYPE06 $ROOT/OLSON_MAP/v2019-02/Olson_2001_Land_Type_Masks.025x025.generic.nc LANDTYPE06 1985/1/1/0 C xy 1 * - 1 1
* LANDTYPE07 $ROOT/OLSON_MAP/v2019-02/Olson_2001_Land_Type_Masks.025x025.generic.nc LANDTYPE07 1985/1/1/0 C xy 1 * - 1 1
* LANDTYPE08 $ROOT/OLSON_MAP/v2019-02/Olson_2001_Land_Type_Masks.025x025.generic.nc LANDTYPE08 1985/1/1/0 C xy 1 * - 1 1
* LANDTYPE09 $ROOT/OLSON_MAP/v2019-02/Olson_2001_Land_Type_Masks.025x025.generic.nc LANDTYPE09 1985/1/1/0 C xy 1 * - 1 1
* LANDTYPE10 $ROOT/OLSON_MAP/v2019-02/Olson_2001_Land_Type_Masks.025x025.generic.nc LANDTYPE10 1985/1/1/0 C xy 1 * - 1 1
* LANDTYPE11 $ROOT/OLSON_MAP/v2019-02/Olson_2001_Land_Type_Masks.025x025.generic.nc LANDTYPE11 1985/1/1/0 C xy 1 * - 1 1
* LANDTYPE12 $ROOT/OLSON_MAP/v2019-02/Olson_2001_Land_Type_Masks.025x025.generic.nc LANDTYPE12 1985/1/1/0 C xy 1 * - 1 1
* LANDTYPE13 $ROOT/OLSON_MAP/v2019-02/Olson_2001_Land_Type_Masks.025x025.generic.nc LANDTYPE13 1985/1/1/0 C xy 1 * - 1 1
* LANDTYPE14 $ROOT/OLSON_MAP/v2019-02/Olson_2001_Land_Type_Masks.025x025.generic.nc LANDTYPE14 1985/1/1/0 C xy 1 * - 1 1
* LANDTYPE15 $ROOT/OLSON_MAP/v2019-02/Olson_2001_Land_Type_Masks.025x025.generic.nc LANDTYPE15 1985/1/1/0 C xy 1 * - 1 1
* LANDTYPE16 $ROOT/OLSON_MAP/v2019-02/Olson_2001_Land_Type_Masks.025x025.generic.nc LANDTYPE16 1985/1/1/0 C xy 1 * - 1 1
* LANDTYPE17 $ROOT/OLSON_MAP/v2019-02/Olson_2001_Land_Type_Masks.025x025.generic.nc LANDTYPE17 1985/1/1/0 C xy 1 * - 1 1
* LANDTYPE18 $ROOT/OLSON_MAP/v2019-02/Olson_2001_Land_Type_Masks.025x025.generic.nc LANDTYPE18 1985/1/1/0 C xy 1 * - 1 1
* LANDTYPE19 $ROOT/OLSON_MAP/v2019-02/Olson_2001_Land_Type_Masks.025x025.generic.nc LANDTYPE19 1985/1/1/0 C xy 1 * - 1 1
* LANDTYPE20 $ROOT/OLSON_MAP/v2019-02/Olson_2001_Land_Type_Masks.025x025.generic.nc LANDTYPE20 1985/1/1/0 C xy 1 * - 1 1
* LANDTYPE21 $ROOT/OLSON_MAP/v2019-02/Olson_2001_Land_Type_Masks.025x025.generic.nc LANDTYPE21 1985/1/1/0 C xy 1 * - 1 1
* LANDTYPE22 $ROOT/OLSON_MAP/v2019-02/Olson_2001_Land_Type_Masks.025x025.generic.nc LANDTYPE22 1985/1/1/0 C xy 1 * - 1 1
* LANDTYPE23 $ROOT/OLSON_MAP/v2019-02/Olson_2001_Land_Type_Masks.025x025.generic.nc LANDTYPE23 1985/1/1/0 C xy 1 * - 1 1
* LANDTYPE24 $ROOT/OLSON_MAP/v2019-02/Olson_2001_Land_Type_Masks.025x025.generic.nc LANDTYPE24 1985/1/1/0 C xy 1 * - 1 1
* LANDTYPE25 $ROOT/OLSON_MAP/v2019-02/Olson_2001_Land_Type_Masks.025x025.generic.nc LANDTYPE25 1985/1/1/0 C xy 1 * - 1 1
* LANDTYPE26 $ROOT/OLSON_MAP/v2019-02/Olson_2001_Land_Type_Masks.025x025.generic.nc LANDTYPE26 1985/1/1/0 C xy 1 * - 1 1
* LANDTYPE27 $ROOT/OLSON_MAP/v2019-02/Olson_2001_Land_Type_Masks.025x025.generic.nc LANDTYPE27 1985/1/1/0 C xy 1 * - 1 1
* LANDTYPE28 $ROOT/OLSON_MAP/v2019-02/Olson_2001_Land_Type_Masks.025x025.generic.nc LANDTYPE28 1985/1/1/0 C xy 1 * - 1 1
* LANDTYPE29 $ROOT/OLSON_MAP/v2019-02/Olson_2001_Land_Type_Masks.025x025.generic.nc LANDTYPE29 1985/1/1/0 C xy 1 * - 1 1
* LANDTYPE30 $ROOT/OLSON_MAP/v2019-02/Olson_2001_Land_Type_Masks.025x025.generic.nc LANDTYPE30 1985/1/1/0 C xy 1 * - 1 1
* LANDTYPE31 $ROOT/OLSON_MAP/v2019-02/Olson_2001_Land_Type_Masks.025x025.generic.nc LANDTYPE31 1985/1/1/0 C xy 1 * - 1 1
* LANDTYPE32 $ROOT/OLSON_MAP/v2019-02/Olson_2001_Land_Type_Masks.025x025.generic.nc LANDTYPE32 1985/1/1/0 C xy 1 * - 1 1
* LANDTYPE33 $ROOT/OLSON_MAP/v2019-02/Olson_2001_Land_Type_Masks.025x025.generic.nc LANDTYPE33 1985/1/1/0 C xy 1 * - 1 1
* LANDTYPE34 $ROOT/OLSON_MAP/v2019-02/Olson_2001_Land_Type_Masks.025x025.generic.nc LANDTYPE34 1985/1/1/0 C xy 1 * - 1 1
* LANDTYPE35 $ROOT/OLSON_MAP/v2019-02/Olson_2001_Land_Type_Masks.025x025.generic.nc LANDTYPE35 1985/1/1/0 C xy 1 * - 1 1
* LANDTYPE36 $ROOT/OLSON_MAP/v2019-02/Olson_2001_Land_Type_Masks.025x025.generic.nc LANDTYPE36 1985/1/1/0 C xy 1 * - 1 1
* LANDTYPE37 $ROOT/OLSON_MAP/v2019-02/Olson_2001_Land_Type_Masks.025x025.generic.nc LANDTYPE37 1985/1/1/0 C xy 1 * - 1 1
* LANDTYPE38 $ROOT/OLSON_MAP/v2019-02/Olson_2001_Land_Type_Masks.025x025.generic.nc LANDTYPE38 1985/1/1/0 C xy 1 * - 1 1
* LANDTYPE39 $ROOT/OLSON_MAP/v2019-02/Olson_2001_Land_Type_Masks.025x025.generic.nc LANDTYPE39 1985/1/1/0 C xy 1 * - 1 1
* LANDTYPE40 $ROOT/OLSON_MAP/v2019-02/Olson_2001_Land_Type_Masks.025x025.generic.nc LANDTYPE40 1985/1/1/0 C xy 1 * - 1 1
* LANDTYPE41 $ROOT/OLSON_MAP/v2019-02/Olson_2001_Land_Type_Masks.025x025.generic.nc LANDTYPE41 1985/1/1/0 C xy 1 * - 1 1
* LANDTYPE42 $ROOT/OLSON_MAP/v2019-02/Olson_2001_Land_Type_Masks.025x025.generic.nc LANDTYPE42 1985/1/1/0 C xy 1 * - 1 1
* LANDTYPE43 $ROOT/OLSON_MAP/v2019-02/Olson_2001_Land_Type_Masks.025x025.generic.nc LANDTYPE43 1985/1/1/0 C xy 1 * - 1 1
* LANDTYPE44 $ROOT/OLSON_MAP/v2019-02/Olson_2001_Land_Type_Masks.025x025.generic.nc LANDTYPE44 1985/1/1/0 C xy 1 * - 1 1
* LANDTYPE45 $ROOT/OLSON_MAP/v2019-02/Olson_2001_Land_Type_Masks.025x025.generic.nc LANDTYPE45 1985/1/1/0 C xy 1 * - 1 1
* LANDTYPE46 $ROOT/OLSON_MAP/v2019-02/Olson_2001_Land_Type_Masks.025x025.generic.nc LANDTYPE46 1985/1/1/0 C xy 1 * - 1 1
* LANDTYPE47 $ROOT/OLSON_MAP/v2019-02/Olson_2001_Land_Type_Masks.025x025.generic.nc LANDTYPE47 1985/1/1/0 C xy 1 * - 1 1
* LANDTYPE48 $ROOT/OLSON_MAP/v2019-02/Olson_2001_Land_Type_Masks.025x025.generic.nc LANDTYPE48 1985/1/1/0 C xy 1 * - 1 1
* LANDTYPE49 $ROOT/OLSON_MAP/v2019-02/Olson_2001_Land_Type_Masks.025x025.generic.nc LANDTYPE49 1985/1/1/0 C xy 1 * - 1 1
* LANDTYPE50 $ROOT/OLSON_MAP/v2019-02/Olson_2001_Land_Type_Masks.025x025.generic.nc LANDTYPE50 1985/1/1/0 C xy 1 * - 1 1
* LANDTYPE51 $ROOT/OLSON_MAP/v2019-02/Olson_2001_Land_Type_Masks.025x025.generic.nc LANDTYPE51 1985/1/1/0 C xy 1 * - 1 1
* LANDTYPE52 $ROOT/OLSON_MAP/v2019-02/Olson_2001_Land_Type_Masks.025x025.generic.nc LANDTYPE52 1985/1/1/0 C xy 1 * - 1 1
* LANDTYPE53 $ROOT/OLSON_MAP/v2019-02/Olson_2001_Land_Type_Masks.025x025.generic.nc LANDTYPE53 1985/1/1/0 C xy 1 * - 1 1
* LANDTYPE54 $ROOT/OLSON_MAP/v2019-02/Olson_2001_Land_Type_Masks.025x025.generic.nc LANDTYPE54 1985/1/1/0 C xy 1 * - 1 1
* LANDTYPE55 $ROOT/OLSON_MAP/v2019-02/Olson_2001_Land_Type_Masks.025x025.generic.nc LANDTYPE55 1985/1/1/0 C xy 1 * - 1 1
* LANDTYPE56 $ROOT/OLSON_MAP/v2019-02/Olson_2001_Land_Type_Masks.025x025.generic.nc LANDTYPE56 1985/1/1/0 C xy 1 * - 1 1
* LANDTYPE57 $ROOT/OLSON_MAP/v2019-02/Olson_2001_Land_Type_Masks.025x025.generic.nc LANDTYPE57 1985/1/1/0 C xy 1 * - 1 1
* LANDTYPE58 $ROOT/OLSON_MAP/v2019-02/Olson_2001_Land_Type_Masks.025x025.generic.nc LANDTYPE58 1985/1/1/0 C xy 1 * - 1 1
* LANDTYPE59 $ROOT/OLSON_MAP/v2019-02/Olson_2001_Land_Type_Masks.025x025.generic.nc LANDTYPE59 1985/1/1/0 C xy 1 * - 1 1
* LANDTYPE60 $ROOT/OLSON_MAP/v2019-02/Olson_2001_Land_Type_Masks.025x025.generic.nc LANDTYPE60 1985/1/1/0 C xy 1 * - 1 1
* LANDTYPE61 $ROOT/OLSON_MAP/v2019-02/Olson_2001_Land_Type_Masks.025x025.generic.nc LANDTYPE61 1985/1/1/0 C xy 1 * - 1 1
* LANDTYPE62 $ROOT/OLSON_MAP/v2019-02/Olson_2001_Land_Type_Masks.025x025.generic.nc LANDTYPE62 1985/1/1/0 C xy 1 * - 1 1
* LANDTYPE63 $ROOT/OLSON_MAP/v2019-02/Olson_2001_Land_Type_Masks.025x025.generic.nc LANDTYPE63 1985/1/1/0 C xy 1 * - 1 1
* LANDTYPE64 $ROOT/OLSON_MAP/v2019-02/Olson_2001_Land_Type_Masks.025x025.generic.nc LANDTYPE64 1985/1/1/0 C xy 1 * - 1 1
* LANDTYPE65 $ROOT/OLSON_MAP/v2019-02/Olson_2001_Land_Type_Masks.025x025.generic.nc LANDTYPE65 1985/1/1/0 C xy 1 * - 1 1
* LANDTYPE66 $ROOT/OLSON_MAP/v2019-02/Olson_2001_Land_Type_Masks.025x025.generic.nc LANDTYPE66 1985/1/1/0 C xy 1 * - 1 1
* LANDTYPE67 $ROOT/OLSON_MAP/v2019-02/Olson_2001_Land_Type_Masks.025x025.generic.nc LANDTYPE67 1985/1/1/0 C xy 1 * - 1 1
* LANDTYPE68 $ROOT/OLSON_MAP/v2019-02/Olson_2001_Land_Type_Masks.025x025.generic.nc LANDTYPE68 1985/1/1/0 C xy 1 * - 1 1
* LANDTYPE69 $ROOT/OLSON_MAP/v2019-02/Olson_2001_Land_Type_Masks.025x025.generic.nc LANDTYPE69 1985/1/1/0 C xy 1 * - 1 1
* LANDTYPE70 $ROOT/OLSON_MAP/v2019-02/Olson_2001_Land_Type_Masks.025x025.generic.nc LANDTYPE70 1985/1/1/0 C xy 1 * - 1 1
* LANDTYPE71 $ROOT/OLSON_MAP/v2019-02/Olson_2001_Land_Type_Masks.025x025.generic.nc LANDTYPE71 1985/1/1/0 C xy 1 * - 1 1
* LANDTYPE72 $ROOT/OLSON_MAP/v2019-02/Olson_2001_Land_Type_Masks.025x025.generic.nc LANDTYPE72 1985/1/1/0 C xy 1 * - 1 1
)))OLSON_LANDMAP

#==============================================================================
# --- Yuan processed MODIS leaf area index data ---
#
# Source: Yuan et al 2011, doi:10.1016/j.rse.2011.01.001
#         http://globalchange.bnu.edu.cn/research/lai
#
# NOTES:
# (1) LAI data corresponding to each Olson land type is stored in
#      separate netCDF variables (XLAI00, XLAI01, ... XLAI72).
#      The "XLAI" denotes that the files are prepared in this way.
# (2) Units are "cm2 leaf/cm2 grid box".
# (3) Data is timestamped every 8 days, starting from the 2nd of the month.
#==============================================================================
(((YUAN_MODIS_LAI
* XLAI00 $ROOT/Yuan_XLAI/v2021-06/Yuan_proc_MODIS_XLAI.025x025.$YYYY.nc XLAI00 2000-2020/1-12/1-31/0 I xy cm2/cm2 * - 1 1
* XLAI01 $ROOT/Yuan_XLAI/v2021-06/Yuan_proc_MODIS_XLAI.025x025.$YYYY.nc XLAI01 2000-2020/1-12/1-31/0 I xy cm2/cm2 * - 1 1
* XLAI02 $ROOT/Yuan_XLAI/v2021-06/Yuan_proc_MODIS_XLAI.025x025.$YYYY.nc XLAI02 2000-2020/1-12/1-31/0 I xy cm2/cm2 * - 1 1
* XLAI03 $ROOT/Yuan_XLAI/v2021-06/Yuan_proc_MODIS_XLAI.025x025.$YYYY.nc XLAI03 2000-2020/1-12/1-31/0 I xy cm2/cm2 * - 1 1
* XLAI04 $ROOT/Yuan_XLAI/v2021-06/Yuan_proc_MODIS_XLAI.025x025.$YYYY.nc XLAI04 2000-2020/1-12/1-31/0 I xy cm2/cm2 * - 1 1
* XLAI05 $ROOT/Yuan_XLAI/v2021-06/Yuan_proc_MODIS_XLAI.025x025.$YYYY.nc XLAI05 2000-2020/1-12/1-31/0 I xy cm2/cm2 * - 1 1
* XLAI06 $ROOT/Yuan_XLAI/v2021-06/Yuan_proc_MODIS_XLAI.025x025.$YYYY.nc XLAI06 2000-2020/1-12/1-31/0 I xy cm2/cm2 * - 1 1
* XLAI07 $ROOT/Yuan_XLAI/v2021-06/Yuan_proc_MODIS_XLAI.025x025.$YYYY.nc XLAI07 2000-2020/1-12/1-31/0 I xy cm2/cm2 * - 1 1
* XLAI08 $ROOT/Yuan_XLAI/v2021-06/Yuan_proc_MODIS_XLAI.025x025.$YYYY.nc XLAI08 2000-2020/1-12/1-31/0 I xy cm2/cm2 * - 1 1
* XLAI09 $ROOT/Yuan_XLAI/v2021-06/Yuan_proc_MODIS_XLAI.025x025.$YYYY.nc XLAI09 2000-2020/1-12/1-31/0 I xy cm2/cm2 * - 1 1
* XLAI10 $ROOT/Yuan_XLAI/v2021-06/Yuan_proc_MODIS_XLAI.025x025.$YYYY.nc XLAI10 2000-2020/1-12/1-31/0 I xy cm2/cm2 * - 1 1
* XLAI11 $ROOT/Yuan_XLAI/v2021-06/Yuan_proc_MODIS_XLAI.025x025.$YYYY.nc XLAI11 2000-2020/1-12/1-31/0 I xy cm2/cm2 * - 1 1
* XLAI12 $ROOT/Yuan_XLAI/v2021-06/Yuan_proc_MODIS_XLAI.025x025.$YYYY.nc XLAI12 2000-2020/1-12/1-31/0 I xy cm2/cm2 * - 1 1
* XLAI13 $ROOT/Yuan_XLAI/v2021-06/Yuan_proc_MODIS_XLAI.025x025.$YYYY.nc XLAI13 2000-2020/1-12/1-31/0 I xy cm2/cm2 * - 1 1
* XLAI14 $ROOT/Yuan_XLAI/v2021-06/Yuan_proc_MODIS_XLAI.025x025.$YYYY.nc XLAI14 2000-2020/1-12/1-31/0 I xy cm2/cm2 * - 1 1
* XLAI15 $ROOT/Yuan_XLAI/v2021-06/Yuan_proc_MODIS_XLAI.025x025.$YYYY.nc XLAI15 2000-2020/1-12/1-31/0 I xy cm2/cm2 * - 1 1
* XLAI16 $ROOT/Yuan_XLAI/v2021-06/Yuan_proc_MODIS_XLAI.025x025.$YYYY.nc XLAI16 2000-2020/1-12/1-31/0 I xy cm2/cm2 * - 1 1
* XLAI17 $ROOT/Yuan_XLAI/v2021-06/Yuan_proc_MODIS_XLAI.025x025.$YYYY.nc XLAI17 2000-2020/1-12/1-31/0 I xy cm2/cm2 * - 1 1
* XLAI18 $ROOT/Yuan_XLAI/v2021-06/Yuan_proc_MODIS_XLAI.025x025.$YYYY.nc XLAI18 2000-2020/1-12/1-31/0 I xy cm2/cm2 * - 1 1
* XLAI19 $ROOT/Yuan_XLAI/v2021-06/Yuan_proc_MODIS_XLAI.025x025.$YYYY.nc XLAI19 2000-2020/1-12/1-31/0 I xy cm2/cm2 * - 1 1
* XLAI20 $ROOT/Yuan_XLAI/v2021-06/Yuan_proc_MODIS_XLAI.025x025.$YYYY.nc XLAI20 2000-2020/1-12/1-31/0 I xy cm2/cm2 * - 1 1
* XLAI21 $ROOT/Yuan_XLAI/v2021-06/Yuan_proc_MODIS_XLAI.025x025.$YYYY.nc XLAI21 2000-2020/1-12/1-31/0 I xy cm2/cm2 * - 1 1
* XLAI22 $ROOT/Yuan_XLAI/v2021-06/Yuan_proc_MODIS_XLAI.025x025.$YYYY.nc XLAI22 2000-2020/1-12/1-31/0 I xy cm2/cm2 * - 1 1
* XLAI23 $ROOT/Yuan_XLAI/v2021-06/Yuan_proc_MODIS_XLAI.025x025.$YYYY.nc XLAI23 2000-2020/1-12/1-31/0 I xy cm2/cm2 * - 1 1
* XLAI24 $ROOT/Yuan_XLAI/v2021-06/Yuan_proc_MODIS_XLAI.025x025.$YYYY.nc XLAI24 2000-2020/1-12/1-31/0 I xy cm2/cm2 * - 1 1
* XLAI25 $ROOT/Yuan_XLAI/v2021-06/Yuan_proc_MODIS_XLAI.025x025.$YYYY.nc XLAI25 2000-2020/1-12/1-31/0 I xy cm2/cm2 * - 1 1
* XLAI26 $ROOT/Yuan_XLAI/v2021-06/Yuan_proc_MODIS_XLAI.025x025.$YYYY.nc XLAI26 2000-2020/1-12/1-31/0 I xy cm2/cm2 * - 1 1
* XLAI27 $ROOT/Yuan_XLAI/v2021-06/Yuan_proc_MODIS_XLAI.025x025.$YYYY.nc XLAI27 2000-2020/1-12/1-31/0 I xy cm2/cm2 * - 1 1
* XLAI28 $ROOT/Yuan_XLAI/v2021-06/Yuan_proc_MODIS_XLAI.025x025.$YYYY.nc XLAI28 2000-2020/1-12/1-31/0 I xy cm2/cm2 * - 1 1
* XLAI29 $ROOT/Yuan_XLAI/v2021-06/Yuan_proc_MODIS_XLAI.025x025.$YYYY.nc XLAI29 2000-2020/1-12/1-31/0 I xy cm2/cm2 * - 1 1
* XLAI30 $ROOT/Yuan_XLAI/v2021-06/Yuan_proc_MODIS_XLAI.025x025.$YYYY.nc XLAI30 2000-2020/1-12/1-31/0 I xy cm2/cm2 * - 1 1
* XLAI31 $ROOT/Yuan_XLAI/v2021-06/Yuan_proc_MODIS_XLAI.025x025.$YYYY.nc XLAI31 2000-2020/1-12/1-31/0 I xy cm2/cm2 * - 1 1
* XLAI32 $ROOT/Yuan_XLAI/v2021-06/Yuan_proc_MODIS_XLAI.025x025.$YYYY.nc XLAI32 2000-2020/1-12/1-31/0 I xy cm2/cm2 * - 1 1
* XLAI33 $ROOT/Yuan_XLAI/v2021-06/Yuan_proc_MODIS_XLAI.025x025.$YYYY.nc XLAI33 2000-2020/1-12/1-31/0 I xy cm2/cm2 * - 1 1
* XLAI34 $ROOT/Yuan_XLAI/v2021-06/Yuan_proc_MODIS_XLAI.025x025.$YYYY.nc XLAI34 2000-2020/1-12/1-31/0 I xy cm2/cm2 * - 1 1
* XLAI35 $ROOT/Yuan_XLAI/v2021-06/Yuan_proc_MODIS_XLAI.025x025.$YYYY.nc XLAI35 2000-2020/1-12/1-31/0 I xy cm2/cm2 * - 1 1
* XLAI36 $ROOT/Yuan_XLAI/v2021-06/Yuan_proc_MODIS_XLAI.025x025.$YYYY.nc XLAI36 2000-2020/1-12/1-31/0 I xy cm2/cm2 * - 1 1
* XLAI37 $ROOT/Yuan_XLAI/v2021-06/Yuan_proc_MODIS_XLAI.025x025.$YYYY.nc XLAI37 2000-2020/1-12/1-31/0 I xy cm2/cm2 * - 1 1
* XLAI38 $ROOT/Yuan_XLAI/v2021-06/Yuan_proc_MODIS_XLAI.025x025.$YYYY.nc XLAI38 2000-2020/1-12/1-31/0 I xy cm2/cm2 * - 1 1
* XLAI39 $ROOT/Yuan_XLAI/v2021-06/Yuan_proc_MODIS_XLAI.025x025.$YYYY.nc XLAI39 2000-2020/1-12/1-31/0 I xy cm2/cm2 * - 1 1
* XLAI40 $ROOT/Yuan_XLAI/v2021-06/Yuan_proc_MODIS_XLAI.025x025.$YYYY.nc XLAI40 2000-2020/1-12/1-31/0 I xy cm2/cm2 * - 1 1
* XLAI41 $ROOT/Yuan_XLAI/v2021-06/Yuan_proc_MODIS_XLAI.025x025.$YYYY.nc XLAI41 2000-2020/1-12/1-31/0 I xy cm2/cm2 * - 1 1
* XLAI42 $ROOT/Yuan_XLAI/v2021-06/Yuan_proc_MODIS_XLAI.025x025.$YYYY.nc XLAI42 2000-2020/1-12/1-31/0 I xy cm2/cm2 * - 1 1
* XLAI43 $ROOT/Yuan_XLAI/v2021-06/Yuan_proc_MODIS_XLAI.025x025.$YYYY.nc XLAI43 2000-2020/1-12/1-31/0 I xy cm2/cm2 * - 1 1
* XLAI44 $ROOT/Yuan_XLAI/v2021-06/Yuan_proc_MODIS_XLAI.025x025.$YYYY.nc XLAI44 2000-2020/1-12/1-31/0 I xy cm2/cm2 * - 1 1
* XLAI45 $ROOT/Yuan_XLAI/v2021-06/Yuan_proc_MODIS_XLAI.025x025.$YYYY.nc XLAI45 2000-2020/1-12/1-31/0 I xy cm2/cm2 * - 1 1
* XLAI46 $ROOT/Yuan_XLAI/v2021-06/Yuan_proc_MODIS_XLAI.025x025.$YYYY.nc XLAI46 2000-2020/1-12/1-31/0 I xy cm2/cm2 * - 1 1
* XLAI47 $ROOT/Yuan_XLAI/v2021-06/Yuan_proc_MODIS_XLAI.025x025.$YYYY.nc XLAI47 2000-2020/1-12/1-31/0 I xy cm2/cm2 * - 1 1
* XLAI48 $ROOT/Yuan_XLAI/v2021-06/Yuan_proc_MODIS_XLAI.025x025.$YYYY.nc XLAI48 2000-2020/1-12/1-31/0 I xy cm2/cm2 * - 1 1
* XLAI49 $ROOT/Yuan_XLAI/v2021-06/Yuan_proc_MODIS_XLAI.025x025.$YYYY.nc XLAI49 2000-2020/1-12/1-31/0 I xy cm2/cm2 * - 1 1
* XLAI50 $ROOT/Yuan_XLAI/v2021-06/Yuan_proc_MODIS_XLAI.025x025.$YYYY.nc XLAI50 2000-2020/1-12/1-31/0 I xy cm2/cm2 * - 1 1
* XLAI51 $ROOT/Yuan_XLAI/v2021-06/Yuan_proc_MODIS_XLAI.025x025.$YYYY.nc XLAI51 2000-2020/1-12/1-31/0 I xy cm2/cm2 * - 1 1
* XLAI52 $ROOT/Yuan_XLAI/v2021-06/Yuan_proc_MODIS_XLAI.025x025.$YYYY.nc XLAI52 2000-2020/1-12/1-31/0 I xy cm2/cm2 * - 1 1
* XLAI53 $ROOT/Yuan_XLAI/v2021-06/Yuan_proc_MODIS_XLAI.025x025.$YYYY.nc XLAI53 2000-2020/1-12/1-31/0 I xy cm2/cm2 * - 1 1
* XLAI54 $ROOT/Yuan_XLAI/v2021-06/Yuan_proc_MODIS_XLAI.025x025.$YYYY.nc XLAI54 2000-2020/1-12/1-31/0 I xy cm2/cm2 * - 1 1
* XLAI55 $ROOT/Yuan_XLAI/v2021-06/Yuan_proc_MODIS_XLAI.025x025.$YYYY.nc XLAI55 2000-2020/1-12/1-31/0 I xy cm2/cm2 * - 1 1
* XLAI56 $ROOT/Yuan_XLAI/v2021-06/Yuan_proc_MODIS_XLAI.025x025.$YYYY.nc XLAI56 2000-2020/1-12/1-31/0 I xy cm2/cm2 * - 1 1
* XLAI57 $ROOT/Yuan_XLAI/v2021-06/Yuan_proc_MODIS_XLAI.025x025.$YYYY.nc XLAI57 2000-2020/1-12/1-31/0 I xy cm2/cm2 * - 1 1
* XLAI58 $ROOT/Yuan_XLAI/v2021-06/Yuan_proc_MODIS_XLAI.025x025.$YYYY.nc XLAI58 2000-2020/1-12/1-31/0 I xy cm2/cm2 * - 1 1
* XLAI59 $ROOT/Yuan_XLAI/v2021-06/Yuan_proc_MODIS_XLAI.025x025.$YYYY.nc XLAI59 2000-2020/1-12/1-31/0 I xy cm2/cm2 * - 1 1
* XLAI60 $ROOT/Yuan_XLAI/v2021-06/Yuan_proc_MODIS_XLAI.025x025.$YYYY.nc XLAI60 2000-2020/1-12/1-31/0 I xy cm2/cm2 * - 1 1
* XLAI61 $ROOT/Yuan_XLAI/v2021-06/Yuan_proc_MODIS_XLAI.025x025.$YYYY.nc XLAI61 2000-2020/1-12/1-31/0 I xy cm2/cm2 * - 1 1
* XLAI62 $ROOT/Yuan_XLAI/v2021-06/Yuan_proc_MODIS_XLAI.025x025.$YYYY.nc XLAI62 2000-2020/1-12/1-31/0 I xy cm2/cm2 * - 1 1
* XLAI63 $ROOT/Yuan_XLAI/v2021-06/Yuan_proc_MODIS_XLAI.025x025.$YYYY.nc XLAI63 2000-2020/1-12/1-31/0 I xy cm2/cm2 * - 1 1
* XLAI64 $ROOT/Yuan_XLAI/v2021-06/Yuan_proc_MODIS_XLAI.025x025.$YYYY.nc XLAI64 2000-2020/1-12/1-31/0 I xy cm2/cm2 * - 1 1
* XLAI65 $ROOT/Yuan_XLAI/v2021-06/Yuan_proc_MODIS_XLAI.025x025.$YYYY.nc XLAI65 2000-2020/1-12/1-31/0 I xy cm2/cm2 * - 1 1
* XLAI66 $ROOT/Yuan_XLAI/v2021-06/Yuan_proc_MODIS_XLAI.025x025.$YYYY.nc XLAI66 2000-2020/1-12/1-31/0 I xy cm2/cm2 * - 1 1
* XLAI67 $ROOT/Yuan_XLAI/v2021-06/Yuan_proc_MODIS_XLAI.025x025.$YYYY.nc XLAI67 2000-2020/1-12/1-31/0 I xy cm2/cm2 * - 1 1
* XLAI68 $ROOT/Yuan_XLAI/v2021-06/Yuan_proc_MODIS_XLAI.025x025.$YYYY.nc XLAI68 2000-2020/1-12/1-31/0 I xy cm2/cm2 * - 1 1
* XLAI69 $ROOT/Yuan_XLAI/v2021-06/Yuan_proc_MODIS_XLAI.025x025.$YYYY.nc XLAI69 2000-2020/1-12/1-31/0 I xy cm2/cm2 * - 1 1
* XLAI70 $ROOT/Yuan_XLAI/v2021-06/Yuan_proc_MODIS_XLAI.025x025.$YYYY.nc XLAI70 2000-2020/1-12/1-31/0 I xy cm2/cm2 * - 1 1
* XLAI71 $ROOT/Yuan_XLAI/v2021-06/Yuan_proc_MODIS_XLAI.025x025.$YYYY.nc XLAI71 2000-2020/1-12/1-31/0 I xy cm2/cm2 * - 1 1
* XLAI72 $ROOT/Yuan_XLAI/v2021-06/Yuan_proc_MODIS_XLAI.025x025.$YYYY.nc XLAI72 2000-2020/1-12/1-31/0 I xy cm2/cm2 * - 1 1
)))YUAN_MODIS_LAI

### END SECTION BASE EMISSIONS ###

###############################################################################
### BEGIN SECTION SCALE FACTORS
###############################################################################

# ScalID Name sourceFile sourceVar sourceTime C/R/E SrcDim SrcUnit Oper

(((EMISSIONS

#==============================================================================
# --- Plastic scale factors ---
# - K_MP_{SOURCE}
#     Emission coefficients for plastics from {SOURCE}. The values are chosen
#     to give emissions of ~ 1 Gg/year from each source.
# - K_MP_OCEN_PST1
#     Adjustment factor to make base ocean PST1 emissions equal the base ocean
#     emissions from other size fractions (adjust for SALA vs SALC)
# - PST{SIZE}_{SOURCE}_fact
#     Size coefficients to distribute emissions across tracer sizes (i.e. set
#     the size distribution of emissions). The values correspond to a
#     powerlaw size distribution with exponent alpha = -2.8 (slope = -1.8).
#==============================================================================
# Plastic emission coefficients
617  K_MP_OCEN_PST1 60.52460     - - - xy 1 1
618  K_MP_OCEN       2.15023e-09 - - - xy 1 1
910  K_MP_RESI       4.17323e-18 - - - xy 1 1
1110 K_MP_ROAD       7.39305e-06 - - - xy 1 1
# Plastic size distribution coefficients
#====Ocean====
621  PST1_OCEN_fact 0.00526 - - - xy 1 1
622  PST2_OCEN_fact 0.02395 - - - xy 1 1